LTspice 24.0.12 for Windows
Circuit: * C:\Users\Asus\Desktop\proje\Gain, BW and Phase.asc
Start Time: Mon Jan 27 16:30:52 2025
solver = Normal
Maximum thread count: 4
tnom = 27
temp = 27
method = modified trap
Warning: toxe, toxp and dtox all given and toxe != toxp + dtox; dtox ignored.
Warning: toxe, toxp and dtox all given and toxe != toxp + dtox; dtox ignored.
Direct Newton iteration for .op point succeeded.
Total elapsed time: 0.335 seconds.

